/*--------------------------------*- C++ -*----------------------------------*\
| =========                 |                                                 |
| \\      /  F ield         | OpenFOAM: The Open Source CFD Toolbox           |
|  \\    /   O peration     | Version:  plus                                  |
|   \\  /    A nd           | Web:      www.OpenFOAM.com                      |
|    \\/     M anipulation  |                                                 |
\*---------------------------------------------------------------------------*/
FoamFile
{
    version     2.0;
    format      ascii;
    class       volVectorField;
    object      gradT;
}
// * * * * * * * * * * * * * * * * * * * * * * * * * * * * * * * * * * * * * //

dimensions      [0 -1 0 1 0 0 0];

internalField   uniform (0 0 0);

boundaryField
{
    freeSurf
    {
        type            calculated;
        value           $internalField;
    }

    crucibleSide
    {
        type            calculated;
        value           $internalField;
    }

    crucibleBot
    {
        type            calculated;
        value           $internalField;
    }

    crysInter
    {
        type            calculated;
        value           $internalField;
    }

    axis
    {
        type            empty;
    }

    defaultFaces
    {
        type            empty;
    }
    "(front|back)"
    {
        type            wedge;
    }
}

// ************************************************************************* //
